pylon/test/data/ehv3.raw
@!	System Base								
0	100								
@! Headings									
DTI Centre for DG&SEE									
UKGDS1-EHV3									
@!Bus	Name	Base_kV	Type	Y_re	Y_im	Area	Zone	PU Volt	Angle
99	'X10-Y50'	275	3	0	0	1	1	1	0
101	'X10-Y40'	132	1	0	0	1	1	1	0
102	'X20-Y40'	132	1	0	0	1	1	1	0
103	'X30-Y40'	132	1	0	0	1	1	1	0
104	'X40-Y40'	132	1	0	0	1	1	1	0
105	'X50-Y40'	132	1	0	0	1	1	1	0
106	'X60-Y40'	132	1	0	0	1	1	1	0
107	'X70-Y40'	132	1	0	0	1	1	1	0
108	'X80-Y40'	132	1	0	0	1	1	1	0
109	'X90-Y40'	132	1	0	0	1	1	1	0
110	'X100-Y40'	132	1	0	0	1	1	1	0
111	'X110-Y40'	132	1	0	0	1	1	1	0
112	'X120-Y40'	132	1	0	0	1	1	1	0
113	'X130-Y40'	132	1	0	0	1	1	1	0
114	'X140-Y40'	132	1	0	0	1	1	1	0
115	'X150-Y40'	132	1	0	0	1	1	1	0
116	'X160-Y40'	132	1	0	0	1	1	1	0
117	'X170-Y40'	132	1	0	0	1	1	1	0
301	'X10-Y20'	33	1	0	0	1	1	1	-30
303	'X30-Y20'	33	1	0	0	1	1	1	-30
305	'X50-Y20'	33	1	0	0	1	1	1	-30
306	'X60-Y20'	33	1	0	0	1	1	1	-30
307	'X70-Y20'	33	1	0	0	1	1	1	-30
308	'X80-Y20'	33	1	0	0	1	1	1	-30
309	'X90-Y20'	33	1	0	0	1	1	1	-30
311	'X110-Y20'	33	1	0	0	1	1	1	-30
312	'X120-Y20'	33	1	0	0	1	1	1	-30
313	'X130-Y20'	33	1	0	0	1	1	1	-30
314	'X140-Y20'	33	1	0	0	1	1	1	-30
315	'X150-Y20'	33	1	0	0	1	1	1	-30
316	'X160-Y20'	33	1	0	0	1	1	1	-30
317	'X170-Y20'	33	1	0	0	1	1	1	-30
318	'X180-Y20'	33	1	0	0	1	1	1	-30
319	'X190-Y20'	33	1	0	0	1	1	1	-30
320	'X200-Y20'	33	1	0	0	1	1	1	-30
321	'X210-Y20'	33	1	0	0	1	1	1	-30
322	'X220-Y20'	33	1	0	0	1	1	1	-30
324	'X240-Y20'	33	1	0	0	1	1	1	-30
325	'X250-Y20'	33	1	0	0	1	1	1	-30
326	'X260-Y20'	33	1	0	0	1	1	1	-30
327	'X270-Y20'	33	1	0	0	1	1	1	-30
328	'X280-Y20'	33	1	0	0	1	1	1	-30
329	'X290-Y20'	33	1	0	0	1	1	1	-30
330	'X300-Y20'	33	1	0	0	1	1	1	-30
331	'X310-Y20'	33	1	0	0	1	1	1	-30
332	'X320-Y20'	33	1	0	0	1	1	1	-30
333	'X330-Y20'	33	1	0	0	1	1	1	-30
334	'X340-Y20'	33	1	0	0	1	1	1	-30
335	'X350-Y20'	33	2	0	0	1	1	1	-30
336	'X360-Y20'	33	1	0	0	1	1	1	-30
337	'X370-Y20'	33	1	0	0	1	1	1	-30
338	'X380-Y20'	33	1	0	0	1	1	1	-30
339	'X390-Y20'	33	1	0	0	1	1	1	-30
340	'X400-Y20'	33	1	0	0	1	1	1	-30
341	'X410-Y20'	33	1	0	0	1	1	1	-30
342	'X420-Y20'	33	1	0	0	1	1	1	-30
343	'X430-Y20'	33	1	0	0	1	1	1	-30
344	'X440-Y20'	33	1	0	0	1	1	1	-30
345	'X450-Y20'	33	2	0	0	1	1	1	-30
346	'X460-Y20'	33	1	0	0	1	1	1	-30
347	'X470-Y20'	33	1	0	0	1	1	1	-30
348	'X480-Y20'	33	1	0	0	1	1	1	-30
350	'X500-Y20'	33	1	0	0	1	1	1	-30
351	'X510-Y20'	33	1	0	0	1	1	1	-30
352	'X520-Y20'	33	1	0	0	1	1	1	-30
353	'X530-Y20'	33	1	0	0	1	1	1	-30
354	'X540-Y20'	33	1	0	0	1	1	1	-30
355	'X550-Y20'	33	1	0	0	1	1	1	-30
356	'X560-Y20'	33	1	0	0	1	1	1	-30
357	'X570-Y20'	33	1	0	0	1	1	1	-30
358	'X580-Y20'	33	1	0	0	1	1	1	-30
359	'X590-Y20'	33	1	0	0	1	1	1	-30
360	'X600-Y20'	33	1	0	0	1	1	1	-30
361	'X610-Y20'	33	1	0	0	1	1	1	-30
362	'X620-Y20'	33	1	0	0	1	1	1	-30
363	'X630-Y20'	33	1	0	0	1	1	1	-30
1101	'X10-Y10'	11	1	0	0	1	1	1	0
1102	'X20-Y10'	11	1	0	0	1	1	1	0
1103	'X30-Y10'	11	1	0	0	1	1	1	0
1104	'X40-Y10'	11	1	0	0	1	1	1	0
1105	'X50-Y10'	11	1	0	0	1	1	1	0
1106	'X60-Y10'	11	1	0	0	1	1	1	0
1107	'X70-Y10'	11	1	0	0	1	1	1	0
1108	'X80-Y10'	11	1	0	0	1	1	1	0
1109	'X90-Y10'	11	1	0	0	1	1	1	0
6601	'X10-Y5'	6.6	1	0	0	1	1	1	0
6602	'X20-Y5'	6.6	1	0	0	1	1	1	0
6603	'X30-Y5'	6.6	1	0	0	1	1	1	0
6604	'X40-Y5'	6.6	1	0	0	1	1	1	0
6605	'X50-Y5'	6.6	1	0	0	1	1	1	0
6606	'X60-Y5'	6.6	1	0	0	1	1	1	0
6607	'X70-Y5'	6.6	1	0	0	1	1	1	0
6608	'X80-Y5'	6.6	1	0	0	1	1	1	0
6609	'X90-Y5'	6.6	1	0	0	1	1	1	0
6610	'X100-Y5'	6.6	1	0	0	1	1	1	0
6611	'X110-Y5'	6.6	1	0	0	1	1	1	0
6612	'X120-Y5'	6.6	1	0	0	1	1	1	0
6613	'X130-Y5'	6.6	1	0	0	1	1	1	0
6614	'X140-Y5'	6.6	1	0	0	1	1	1	0
6615	'X150-Y5'	6.6	1	0	0	1	1	1	0
6616	'X160-Y5'	6.6	1	0	0	1	1	1	0
6617	'X170-Y5'	6.6	1	0	0	1	1	1	0
0									
@!Bus	Load ID	Status	Area	Zone	LP	LQ			
1101	1	1	1	1	15.554	10.103			
1102	1	1	1	1	15.649	3.981			
1103	1	1	1	1	20.09	3.286
1104	1	1	1	1	7.844	9.301
1105	1	1	1	1	15.024	3.279
1106	1	1	1	1	10.369	2.072
1107	1	1	1	1	12.666	3.253
1108	1	1	1	1	5.242	0.956
1109	1	1	1	1	17.814	9.771
6601	1	1	1	1	15.407	4.981
6602	1	1	1	1	17.403	6.718
6603	1	1	1	1	17.936	4.775
6604	1	1	1	1	17.711	5.887
6605	1	1	1	1	15.451	4.324
6606	1	1	1	1	21.461	5.386
6607	1	1	1	1	23.516	7.23
6608	1	1	1	1	15.549	8.64
6609	1	1	1	1	2.511	0.537
6610	1	1	1	1	17.498	7.188											
6611	1	1	1	1	7.629	2.892											
6612	1	1	1	1	23.024	8.552											
6613	1	1	1	1	15.075	4.823											
6614	1	1	1	1	15.852	5.741											
6615	1	1	1	1	6.686	4.322											
6616	1	1	1	1	15.23	6.33											
6617	1	1	1	1	16.423	0.338											
0																	
@!Bus	ID	P	Q	Qmax	Qmin	SchedV	RegBs	MVAbase	ZR	ZX	RTr	XTr	GTAP	Stat	Percent	Pmax	Pmin
99	1	500	200	1000	-1000	1	0	100	0	0.006	0	0	1	1	1	1000	0
335	1	0	0	30	-30	1	0	100	0	0.6	0	0	1	1	1	30	-30
345	1	0	0	20	-20	1	0	100	0	0.6	0	0	1	1	1	20	-20
0																	
@!From	To	ID	R	X	B	RateA	RateB	RateC	G_busI	B_busI	G_busJ	B_busJ	Stat	Len			
101	102	1	0.00456	0.02278	0.01052	190	210	170	0	0	0	0	1	5.865			
101	103	1	0.00407	0.0203	0.00937	190	210	170	0	0	0	0	1	0.087
101	106	1	0.01709	0.03743	0.04277	100	110	90	0	0	0	0	1	11.754
101	107	1	0.01492	0.03264	0.03871	100	110	90	0	0	0	0	1	0.153
101	108	1	0.00036	0.00082	0.0015	130	140	120	0	0	0	0	1	0.02
101	109	1	0.00043	0.00097	0.00217	130	140	120	0	0	0	0	1	0.352
101	110	1	0.00617	0.01328	0.03276	100	110	90	0	0	0	0	1	4.293
101	111	1	0.0065	0.01399	0.03526	100	110	90	0	0	0	0	1	6.183
101	116	1	0.01219	0.02745	0.00975	100	110	90	0	0	0	0	1	7.066
102	104	1	0.00088	0.00123	0.03975	100	110	90	0	0	0	0	1	1.853
103	105	1	0.00077	0.00108	0.0349	100	110	90	0	0	0	0	1	0.466
103	117	1	0.00214	0.00487	0.00106	70	80	60	0	0	0	0	1	1.493
106	112	1	0.00033	0.00075	0.00017	100	110	90	0	0	0	0	1	0.234
106	114	1	0.00646	0.02204	0.00824	190	210	170	0	0	0	0	1	3.364
107	113	1	0.00033	0.00074	0.00016	100	110	90	0	0	0	0	1	0.208
107	115	1	0.00687	0.02342	0.00876	190	210	170	0	0	0	0	1	7.337
307	341	1	0.01777	0.02198	0	30	35	25	0	0	0	0	1	0.124
313	308	1	0.05708	0.05404	0	20	25	15	0	0	0	0	1	2.729
313	309	1	0.07907	0.10776	0	20	25	15	0	0	0	0	1	2.347
313	362	1	0.00102	0.00128	0	20	25	15	0	0	0	0	1	0.021
313	363	1	0.00064	0.00118	0	20	25	15	0	0	0	0	1	0.019
314	315	1	0.01869	0.01772	0	30	35	25	0	0	0	0	1	0.521
315	345	1	0.07071	0.06239	0	20	25	15	0	0	0	0	1	1.105
316	314	1	0.03403	0.03422	0	30	35	25	0	0	0	0	1	3.811
316	315	1	0.06905	0.04896	0	20	25	15	0	0	0	0	1	2.911
316	315	2	0.05204	0.04789	0	20	25	15	0	0	0	0	1	2.154
316	315	3	0.07379	0.05227	0	20	25	15	0	0	0	0	1	3.801
316	317	1	0.00553	0.00515	0	20	25	15	0	0	0	0	1	0.383
316	318	1	0.00562	0.00491	0	20	25	15	0	0	0	0	1	0.077
316	353	1	0.03216	0.02962	0	20	25	15	0	0	0	0	1	1.379
316	354	1	0.03942	0.02002	0	20	25	15	0	0	0	0	1	0.085
327	326	1	0.08393	0.08699	0	30	35	25	0	0	0	0	1	1.369
332	325	1	0.01986	0.01806	0	20	25	15	0	0	0	0	1	1.24
334	327	1	0.04203	0.08116	0	30	35	25	0	0	0	0	1	1.276
334	332	1	0.02255	0.01976	0	30	35	25	0	0	0	0	1	1.944
336	332	1	0.03335	0.03706	0	30	35	25	0	0	0	0	1	0.974
337	333	1	0.03991	0.03175	0	30	35	25	0	0	0	0	1	1.787
337	336	1	0	0.0001	0	20	25	15	0	0	0	0	1	0
338	305	1	0.04531	0.0774	0	20	25	15	0	0	0	0	1	1.605
338	306	1	0.05707	0.08994	0	20	25	15	0	0	0	0	1	2.693
338	330	1	0.1025	0.12748	0	30	35	25	0	0	0	0	1	1.173
338	331	1	0.11105	0.13972	0	30	35	25	0	0	0	0	1	3.847
338	334	1	0.06296	0.10334	0	30	35	25	0	0	0	0	1	1.566
338	339	1	0.00083	0.00111	0	20	25	15	0	0	0	0	1	0.096
338	340	1	0.00047	0.00065	0	20	25	15	0	0	0	0	1	0.048
338	341	1	0.04338	0.07157	0	20	25	15	0	0	0	0	1	2.617
338	346	1	0.01813	0.01616	0	20	25	15	0	0	0	0	1	1.396
338	347	1	0.01682	0.01489	0	20	25	15	0	0	0	0	1	0.497
338	360	1	0.04027	0.03701	0	20	25	15	0	0	0	0	1	3.612
338	361	1	0.03516	0.03231	0	20	25	15	0	0	0	0	1	1.081
342	319	1	0.01693	0.01601	0	30	35	25	0	0	0	0	1	0.432
342	320	1	0.01229	0.0125	0	30	35	25	0	0	0	0	1	0.694
342	335	1	0.04317	0.0349	0	30	35	25	0	0	0	0	1	2.627
342	336	1	0.03939	0.04722	0	30	35	25	0	0	0	0	1	3.61
342	337	1	0.06576	0.08171	0	30	35	25	0	0	0	0	1	0.045
342	343	1	0.00994	0.00922	0	20	25	15	0	0	0	0	1	0.667
342	344	1	0.00771	0.00709	0	20	25	15	0	0	0	0	1	0.422
342	350	1	0.01498	0.01077	0	20	25	15	0	0	0	0	1	0.984
342	351	1	0.01306	0.00936	0	20	25	15	0	0	0	0	1	0.094
348	324	1	0.10769	0.10741	0	30	35	25	0	0	0	0	1	4.722
348	327	1	0.27301	0.37173	0	20	25	15	0	0	0	0	1	5.458
348	328	1	0	0.0001	0	20	25	15	0	0	0	0	1	0
348	329	1	0	0.0001	0	20	25	15	0	0	0	0	1	0
353	352	1	0.02866	0.02438	0	20	25	15	0	0	0	0	1	0.299
353	357	1	0.01489	0.01296	0	20	25	15	0	0	0	0	1	0.071
357	301	1	0.03327	0.03128	0	20	25	15	0	0	0	0	1	0.992	
357	303	1	0.03506	0.03115	0	20	25	15	0	0	0	0	1	3.44	
357	311	1	0.01781	0.01573	0	20	25	15	0	0	0	0	1	0.307	
357	312	1	0.01946	0.01732	0	20	25	15	0	0	0	0	1	1.058	
357	321	1	0.00812	0.00973	0	30	35	25	0	0	0	0	1	0.236	
357	322	1	0.00905	0.01085	0	30	35	25	0	0	0	0	1	0.793	
357	355	1	0.02434	0.02303	0	20	25	15	0	0	0	0	1	0.479	
357	356	1	0.03688	0.03804	0	20	25	15	0	0	0	0	1	1.215	
357	358	1	0.00146	0.00139	0	20	25	15	0	0	0	0	1	0.004	
357	359	1	0.00148	0.00141	0	20	25	15	0	0	0	0	1	0.004	
0															
@!From	To	K	ID	CW	CZ	CM	MAG1	MAG2	NMETR	’NAME’	STAT	O1	F1		
@!R1-2	X1-2	SBASE1-2													
@!WINDV1	NOMV1	ANG1	RATA1	RATB1	RATC1	COD	CONT	RMA	RMI	VMA	VMI	NTP	TAB	CR	CX
@!WINDV2	NOMV2														
99	101	0	1	1	1	2	0	0	2	'99-101'	1	1	1	/	/
0	0.1	100	/	/	/	/	/	/	/	/	/	/	/	/	/
1	0	0	500	500	500	1	101	1.1	0.8	1.03	1.015	31	0	0	0
1	0	/	/	/	/	/	/	/	/	/	/	/	/	/	/
99	101	0	2	1	1	2	0	0	2	'99-101'	1	1	1	/	/
0	0.1	100	/	/	/	/	/	/	/	/	/	/	/	/	/
1	0	0	500	500	500	1	101	1.1	0.8	1.03	1.015	31	0	0	0
1	0	/	/	/	/	/	/	/	/	/	/	/	/	/	/
104	316	0	1	1	1	2	0	0	2	'104-316'	1	1	1	/	/
0.00556	0.17199	100	/	/	/	/	/	/	/	/	/	/	/	/	/
1	0	30	90	99	54	1	316	1.1	0.8	1.03	0.97	31	0	0	0
1	0	/	/	/	/	/	/	/	/	/	/	/	/	/	/
105	316	0	1	1	1	2	0	0	2	'105-316'	1	1	1	/	/
0.00538	0.17062	100	/	/	/	/	/	/	/	/	/	/	/	/	/
1	0	30	90	99	54	1	316	1.1	0.8	1.03	0.97	31	0	0	0
1	0	/	/	/	/	/	/	/	/	/	/	/	/	/	/
108	338	0	1	1	1	2	0	0	2	'108-338'	1	1	1	/	/
0.00916	0.19458	100	/	/	/	/	/	/	/	/	/	/	/	/	/
1	0	30	60	66	36	1	338	1.1	0.8	1.03	0.97	31	0	0	0
1	0	/	/	/	/	/	/	/	/	/	/	/	/	/	/
109	338	0	1	1	1	2	0	0	2	'109-338'	1	1	1	/	/
0.00898	0.19486	100	/	/	/	/	/	/	/	/	/	/	/	/	/
1	0	30	60	66	36	1	338	1.1	0.8	1.03	0.97	31	0	0	0
1	0	/	/	/	/	/	/	/	/	/	/	/	/	/	/
109	338	0	2	1	1	2	0	0	2	'109-338'	1	1	1	/	/
0.00916	0.19837	100	/	/	/	/	/	/	/	/	/	/	/	/	/
1	0	30	60	66	36	1	338	1.1	0.8	1.03	0.97	31	0	0	0
1	0	/	/	/	/	/	/	/	/	/	/	/	/	/	/
110	342	0	1	1	1	2	0	0	2	'110-342'	1	1	1	/	/
0.0107	0.2235	100	/	/	/	/	/	/	/	/	/	/	/	/	/
1	0	30	60	66	36	1	342	1.1	0.8	1.03	0.97	31	0	0	0
1	0	/	/	/	/	/	/	/	/	/	/	/	/	/	/
111	342	0	1	1	1	2	0	0	2	'111-342'	1	1	1	/	/
0.0107	0.22457	100	/	/	/	/	/	/	/	/	/	/	/	/	/
1	0	30	60	66	36	1	342	1.1	0.8	1.03	0.97	31	0	0	0
1	0	/	/	/	/	/	/	/	/	/	/	/	/	/	/
112	348	0	1	1	1	2	0	0	2	'112-348'	1	1	1	/	/
0.01317	0.30238	100	/	/	/	/	/	/	/	/	/	/	/	/	/
1	0	30	45	49.5	27	1	348	1.1	0.8	1.03	0.97	31	0	0	0
1	0	/	/	/	/	/	/	/	/	/	/	/	/	/	/
113	348	0	1	1	1	2	0	0	2	'113-348'	1	1	1	/	/
0.01317	0.29463	100	/	/	/	/	/	/	/	/	/	/	/	/	/
1	0	30	45	49.5	27	1	348	1.1	0.8	1.03	0.97	31	0	0	0
1	0	/	/	/	/	/	/	/	/	/	/	/	/	/	/
114	313	0	1	1	1	2	0	0	2	'114-313'	1	1	1	/	/
0.0069	0.23512	100	/	/	/	/	/	/	/	/	/	/	/	/	/
1	0	30	100	110	60	1	313	1.1	0.8	1.03	0.97	31	0	0	0
1	0	/	/	/	/	/	/	/	/	/	/	/	/	/	/
115	313	0	1	1	1	2	0	0	2	'115-313'	1	1	1	/	/
0.00614	0.2371	100	/	/	/	/	/	/	/	/	/	/	/	/	/
1	0	30	90	99	54	1	313	1.1	0.8	1.03	0.97	31	0	0	0
1	0	/	/	/	/	/	/	/	/	/	/	/	/	/	/
116	357	0	1	1	1	2	0	0	2	'116-357'	1	1	1	/	/
0.01079	0.22809	100	/	/	/	/	/	/	/	/	/	/	/	/	/
1	0	30	60	66	36	1	357	1.1	0.8	1.03	0.97	31	0	0	0
1	0	/	/	/	/	/	/	/	/	/	/	/	/	/	/
117	357	0	1	1	1	2	0	0	2	'117-357'	1	1	1	/	/
0.01079	0.22528	100	/	/	/	/	/	/	/	/	/	/	/	/	/
1	0	30	60	66	36	1	357	1.1	0.8	1.03	0.97	31	0	0	0
1	0	/	/	/	/	/	/	/	/	/	/	/	/	/	/
301	6601	0	1	1	1	2	0	0	2	'301-6601'	1	1	1	/	/
0.03738	0.97178	100	/	/	/	/	/	/	/	/	/	/	/	/	/
1	0	-30	14	15.4	8.4	1	6601	1.1	0.8	1.03	0.97	31	0	0	0
1	0	/	/	/	/	/	/	/	/	/	/	/	/	/	/
303	6601	0	1	1	1	2	0	0	2	'303-6601'	1	1	1	/	/
0.03738	0.97178	100	/	/	/	/	/	/	/	/	/	/	/	/	/
1	0	-30	14	15.4	8.4	1	6601	1.1	0.8	1.03	0.97	31	0	0	0
1	0	/	/	/	/	/	/	/	/	/	/	/	/	/	/
305	6602	0	1	1	1	2	0	0	2	'305-6602'	1	1	1	/	/
0.04385	1.09623	100	/	/	/	/	/	/	/	/	/	/	/	/	/
1	0	-30	23	25.3	13.8	1	6602	1.1	0.8	1.03	0.97	31	0	0	0
1	0	/	/	/	/	/	/	/	/	/	/	/	/	/	/
306	6602	0	1	1	1	2	0	0	2	'306-6602'	1	1	1	/	/
0.04385	1.09623	100	/	/	/	/	/	/	/	/	/	/	/	/	/
1	0	-30	23	25.3	13.8	1	6602	1.1	0.8	1.03	0.97	31	0	0	0
1	0	/	/	/	/	/	/	/	/	/	/	/	/	/	/
307	6602	0	1	1	1	2	0	0	2	'307-6602'	1	1	1	/	/
0.04385	1.09623	100	/	/	/	/	/	/	/	/	/	/	/	/	/
1	0	-30	23	25.3	13.8	1	6602	1.1	0.8	1.03	0.97	31	0	0	0
1	0	/	/	/	/	/	/	/	/	/	/	/	/	/	/
308	6603	0	1	1	1	2	0	0	2	'308-6603'	1	1	1	/	/
0.03715	0.92884	100	/	/	/	/	/	/	/	/	/	/	/	/	/
1	0	-30	23	25.3	13.8	1	6603	1.1	0.8	1.03	0.97	31	0	0	0
1	0	/	/	/	/	/	/	/	/	/	/	/	/	/	/
309	6603	0	1	1	1	2	0	0	2	'309-6603'	1	1	1	/	/
0.03715	0.92884	100	/	/	/	/	/	/	/	/	/	/	/	/	/
1	0	-30	23	25.3	13.8	1	6603	1.1	0.8	1.03	0.97	31	0	0	0
1	0	/	/	/	/	/	/	/	/	/	/	/	/	/	/
311	6604	0	1	1	1	2	0	0	2	'311-6604'	1	1	1	/	/
0.04112	1.02795	100	/	/	/	/	/	/	/	/	/	/	/	/	/
1	0	-30	23	25.3	13.8	1	6604	1.1	0.8	1.03	0.97	31	0	0	0
1	0	/	/	/	/	/	/	/	/	/	/	/	/	/	/
312	6604	0	1	1	1	2	0	0	2	'312-6604'	1	1	1	/	/
0.04112	1.02795	100	/	/	/	/	/	/	/	/	/	/	/	/	/
1	0	-30	23	25.3	13.8	1	6604	1.1	0.8	1.03	0.97	31	0	0	0
1	0	/	/	/	/	/	/	/	/	/	/	/	/	/	/
314	6605	0	1	1	1	2	0	0	2	'314-6605'	1	1	1	/	/
0.03931	1.02212	100	/	/	/	/	/	/	/	/	/	/	/	/	/
1	0	-30	14	15.4	8.4	1	6605	1.1	0.8	1.03	0.97	31	0	0	0
1	0	/	/	/	/	/	/	/	/	/	/	/	/	/	/
314	6605	0	2	1	1	2	0	0	2	'314-6605'	1	1	1	/	/
0.03931	1.02212	100	/	/	/	/	/	/	/	/	/	/	/	/	/
1	0	-30	14	15.4	8.4	1	6605	1.1	0.8	1.03	0.97	31	0	0	0
1	0	/	/	/	/	/	/	/	/	/	/	/	/	/	/
315	6606	0	1	1	1	2	0	0	2	'315-6606'	1	1	1	/	/
0.04065	1.01627	100	/	/	/	/	/	/	/	/	/	/	/	/	/
1	0	-30	23	25.3	13.8	1	6606	1.1	0.8	1.03	0.97	31	0	0	0
1	0	/	/	/	/	/	/	/	/	/	/	/	/	/	/
315	6606	0	2	1	1	2	0	0	2	'315-6606'	1	1	1	/	/
0.04065	1.01627	100	/	/	/	/	/	/	/	/	/	/	/	/	/
1	0	-30	23	25.3	13.8	1	6606	1.1	0.8	1.03	0.97	31	0	0	0
1	0	/	/	/	/	/	/	/	/	/	/	/	/	/	/
316	6615	0	1	1	1	2	0	0	2	'316-6615'	1	1	1	/	/
0.03815	0.99178	100	/	/	/	/	/	/	/	/	/	/	/	/	/
1	0	-30	23	25.3	13.8	1	6615	1.1	0.8	1.03	0.97	31	0	0	0
1	0	/	/	/	/	/	/	/	/	/	/	/	/	/	/
316	6615	0	2	1	1	2	0	0	2	'316-6615'	1	1	1	/	/
0.03815	0.99178	100	/	/	/	/	/	/	/	/	/	/	/	/	/
1	0	-30	23	25.3	13.8	1	6615	1.1	0.8	1.03	0.97	31	0	0	0
1	0	/	/	/	/	/	/	/	/	/	/	/	/	/	/
317	6607	0	1	1	1	2	0	0	2	'317-6607'	1	1	1	/	/
0.04322	1.08042	100	/	/	/	/	/	/	/	/	/	/	/	/	/
1	0	-30	23	25.3	13.8	1	6607	1.1	0.8	1.03	0.97	31	0	0	0
1	0	/	/	/	/	/	/	/	/	/	/	/	/	/	/
318	6607	0	1	1	1	2	0	0	2	'318-6607'	1	1	1	/	/
0.04322	1.08042	100	/	/	/	/	/	/	/	/	/	/	/	/	/
1	0	-30	23	25.3	13.8	1	6607	1.1	0.8	1.03	0.97	31	0	0	0
1	0	/	/	/	/	/	/	/	/	/	/	/	/	/	/
319	6608	0	1	1	1	2	0	0	2	'319-6608'	1	1	1	/	/
0.03728	0.93198	100	/	/	/	/	/	/	/	/	/	/	/	/	/
1	0	-30	23	25.3	13.8	1	6608	1.1	0.8	1.03	0.97	31	0	0	0
1	0	/	/	/	/	/	/	/	/	/	/	/	/	/	/
320	6608	0	1	1	1	2	0	0	2	'320-6608'	1	1	1	/	/
0.03728	0.93198	100	/	/	/	/	/	/	/	/	/	/	/	/	/
1	0	-30	23	25.3	13.8	1	6608	1.1	0.8	1.03	0.97	31	0	0	0
1	0	/	/	/	/	/	/	/	/	/	/	/	/	/	/
321	6609	0	1	1	1	2	0	0	2	'321-6609'	1	1	1	/	/
0.0428	1.07011	100	/	/	/	/	/	/	/	/	/	/	/	/	/
1	0	-30	23	25.3	13.8	1	6609	1.1	0.8	1.03	0.97	31	0	0	0
1	0	/	/	/	/	/	/	/	/	/	/	/	/	/	/
322	6609	0	1	1	1	2	0	0	2	'322-6609'	1	1	1	/	/
0.0428	1.07011	100	/	/	/	/	/	/	/	/	/	/	/	/	/
1	0	-30	23	25.3	13.8	1	6609	1.1	0.8	1.03	0.97	31	0	0	0
1	0	/	/	/	/	/	/	/	/	/	/	/	/	/	/
324	1101	0	1	1	1	2	0	0	2	'324-1101'	1	1	1	/	/
0.04256	1.06387	100	/	/	/	/	/	/	/	/	/	/	/	/	/
1	0	-30	23	25.3	13.8	1	1101	1.1	0.8	1.03	0.97	31	0	0	0
1	0	/	/	/	/	/	/	/	/	/	/	/	/	/	/
325	1102	0	1	1	1	2	0	0	2	'325-1102'	1	1	1	/	/
0.04008	1.042	100	/	/	/	/	/	/	/	/	/	/	/	/	/
1	0	-30	12.5	13.8	7.5	1	1102	1.1	0.8	1.03	0.97	31	0	0	0
1	0	/	/	/	/	/	/	/	/	/	/	/	/	/	/
326	1102	0	1	1	1	2	0	0	2	'326-1102'	1	1	1	/	/
0.04008	1.042	100	/	/	/	/	/	/	/	/	/	/	/	/	/
1	0	-30	12.5	13.8	7.5	1	1102	1.1	0.8	1.03	0.97	31	0	0	0
1	0	/	/	/	/	/	/	/	/	/	/	/	/	/	/
328	1103	0	1	1	1	2	0	0	2	'328-1103'	1	1	1	/	/
0.04223	1.05567	100	/	/	/	/	/	/	/	/	/	/	/	/	/
1	0	-30	21	23.1	12.6	1	1103	1.1	0.8	1.03	0.97	31	0	0	0
1	0	/	/	/	/	/	/	/	/	/	/	/	/	/	/
329	1103	0	1	1	1	2	0	0	2	'329-1103'	1	1	1	/	/
0.04223	1.05567	100	/	/	/	/	/	/	/	/	/	/	/	/	/
1	0	-30	21	23.1	12.6	1	1103	1.1	0.8	1.03	0.97	31	0	0	0
1	0	/	/	/	/	/	/	/	/	/	/	/	/	/	/
330	1104	0	1	1	1	2	0	0	2	'330-1104'	1	1	1	/	/
0.03873	0.96832	100	/	/	/	/	/	/	/	/	/	/	/	/	/
1	0	-30	23	25.3	13.8	1	1104	1.1	0.8	1.03	0.97	31	0	0	0
1	0	/	/	/	/	/	/	/	/	/	/	/	/	/	/
331	1104	0	1	1	1	2	0	0	2	'331-1104'	1	1	1	/	/
0.03873	0.96832	100	/	/	/	/	/	/	/	/	/	/	/	/	/
1	0	-30	23	25.3	13.8	1	1104	1.1	0.8	1.03	0.97	31	0	0	0
1	0	/	/	/	/	/	/	/	/	/	/	/	/	/	/
332	1105	0	1	1	1	2	0	0	2	'332-1105'	1	1	1	/	/
0.0405	1.0125	100	/	/	/	/	/	/	/	/	/	/	/	/	/
1	0	-30	23	25.3	13.8	1	1105	1.1	0.8	1.03	0.97	31	0	0	0
1	0	/	/	/	/	/	/	/	/	/	/	/	/	/	/
333	1105	0	1	1	1	2	0	0	2	'333-1105'	1	1	1	/	/
0.0405	1.0125	100	/	/	/	/	/	/	/	/	/	/	/	/	/
1	0	-30	23	25.3	13.8	1	1105	1.1	0.8	1.03	0.97	31	0	0	0
1	0	/	/	/	/	/	/	/	/	/	/	/	/	/	/
336	1106	0	1	1	1	2	0	0	2	'336-1106'	1	1	1	/	/
0.03773	0.98093	100	/	/	/	/	/	/	/	/	/	/	/	/	/
1	0	-30	14	15.4	8.4	1	1106	1.1	0.8	1.03	0.97	31	0	0	0
1	0	/	/	/	/	/	/	/	/	/	/	/	/	/	/
337	1106	0	1	1	1	2	0	0	2	'337-1106'	1	1	1	/	/
0.03773	0.98093	100	/	/	/	/	/	/	/	/	/	/	/	/	/
1	0	-30	12.5	13.8	7.5	1	1106	1.1	0.8	1.03	0.97	31	0	0	0
1	0	/	/	/	/	/	/	/	/	/	/	/	/	/	/
339	6610	0	1	1	1	2	0	0	2	'339-6610'	1	1	1	/	/
0.04353	1.08815	100	/	/	/	/	/	/	/	/	/	/	/	/	/
1	0	-30	23	25.3	13.8	1	6610	1.1	0.8	1.03	0.97	31	0	0	0
1	0	/	/	/	/	/	/	/	/	/	/	/	/	/	/
340	6610	0	1	1	1	2	0	0	2	'340-6610'	1	1	1	/	/
0.04353	1.08815	100	/	/	/	/	/	/	/	/	/	/	/	/	/
1	0	-30	23	25.3	13.8	1	6610	1.1	0.8	1.03	0.97	31	0	0	0
1	0	/	/	/	/	/	/	/	/	/	/	/	/	/	/
341	6611	0	1	1	1	2	0	0	2	'341-6611'	1	1	1	/	/
0.03832	0.99635	100	/	/	/	/	/	/	/	/	/	/	/	/	/
1	0	-30	14	15.4	8.4	1	6611	1.1	0.8	1.03	0.97	31	0	0	0
1	0	/	/	/	/	/	/	/	/	/	/	/	/	/	/
341	6611	0	2	1	1	2	0	0	2	'341-6611'	1	1	1	/	/
0.03832	0.99635	100	/	/	/	/	/	/	/	/	/	/	/	/	/
1	0	-30	14	15.4	8.4	1	6611	1.1	0.8	1.03	0.97	31	0	0	0
1	0	/	/	/	/	/	/	/	/	/	/	/	/	/	/
343	6612	0	1	1	1	2	0	0	2	'343-6612'	1	1	1	/	/
0.03856	0.96407	100	/	/	/	/	/	/	/	/	/	/	/	/	/
1	0	-30	23	25.3	13.8	1	6612	1.1	0.8	1.03	0.97	31	0	0	0
1	0	/	/	/	/	/	/	/	/	/	/	/	/	/	/
344	6612	0	1	1	1	2	0	0	2	'344-6612'	1	1	1	/	/
0.03856	0.96407	100	/	/	/	/	/	/	/	/	/	/	/	/	/
1	0	-30	23	25.3	13.8	1	6612	1.1	0.8	1.03	0.97	31	0	0	0
1	0	/	/	/	/	/	/	/	/	/	/	/	/	/	/
346	1107	0	1	1	1	2	0	0	2	'346-1107'	1	1	1	/	/
0.03926	0.98142	100	/	/	/	/	/	/	/	/	/	/	/	/	/
1	0	-30	23	25.3	13.8	1	1107	1.1	0.8	1.03	0.97	31	0	0	0
1	0	/	/	/	/	/	/	/	/	/	/	/	/	/	/
347	1107	0	1	1	1	2	0	0	2	'347-1107'	1	1	1	/	/
0.03926	0.98142	100	/	/	/	/	/	/	/	/	/	/	/	/	/
1	0	-30	23	25.3	13.8	1	1107	1.1	0.8	1.03	0.97	31	0	0	0
1	0	/	/	/	/	/	/	/	/	/	/	/	/	/	/
350	1108	0	1	1	1	2	0	0	2	'350-1108'	1	1	1	/	/
0.04146	1.07797	100	/	/	/	/	/	/	/	/	/	/	/	/	/
1	0	-30	12.5	13.8	7.5	1	1108	1.1	0.8	1.03	0.97	31	0	0	0
1	0	/	/	/	/	/	/	/	/	/	/	/	/	/	/
351	1108	0	1	1	1	2	0	0	2	'351-1108'	1	1	1	/	/
0.04146	1.07797	100	/	/	/	/	/	/	/	/	/	/	/	/	/
1	0	-30	12.5	13.8	7.5	1	1108	1.1	0.8	1.03	0.97	31	0	0	0
1	0	/	/	/	/	/	/	/	/	/	/	/	/	/	/
352	6613	0	1	1	1	2	0	0	2	'352-6613'	1	1	1	/	/
0.03754	0.97599	100	/	/	/	/	/	/	/	/	/	/	/	/	/
1	0	-30	14	15.4	8.4	1	6613	1.1	0.8	1.03	0.97	31	0	0	0
1	0	/	/	/	/	/	/	/	/	/	/	/	/	/	/
354	6613	0	1	1	1	2	0	0	2	'354-6613'	1	1	1	/	/
0.03754	0.97599	100	/	/	/	/	/	/	/	/	/	/	/	/	/
1	0	-30	14	15.4	8.4	1	6613	1.1	0.8	1.03	0.97	31	0	0	0
1	0	/	/	/	/	/	/	/	/	/	/	/	/	/	/
355	6614	0	1	1	1	2	0	0	2	'355-6614'	1	1	1	/	/
0.0364	0.94636	100	/	/	/	/	/	/	/	/	/	/	/	/	/
1	0	-30	14	15.4	8.4	1	6614	1.1	0.8	1.03	0.97	31	0	0	0
1	0	/	/	/	/	/	/	/	/	/	/	/	/	/	/
356	6614	0	1	1	1	2	0	0	2	'356-6614'	1	1	1	/	/
0.0364	0.94636	100	/	/	/	/	/	/	/	/	/	/	/	/	/
1	0	-30	14	15.4	8.4	1	6614	1.1	0.8	1.03	0.97	31	0	0	0
1	0	/	/	/	/	/	/	/	/	/	/	/	/	/	/
358	6616	0	1	1	1	2	0	0	2	'358-6616'	1	1	1	/	/
0.0406	1.01488	100	/	/	/	/	/	/	/	/	/	/	/	/	/
1	0	-30	23	25.3	13.8	1	6616	1.1	0.8	1.03	0.97	31	0	0	0
1	0	/	/	/	/	/	/	/	/	/	/	/	/	/	/
359	6616	0	1	1	1	2	0	0	2	'359-6616'	1	1	1	/	/
0.0406	1.01488	100	/	/	/	/	/	/	/	/	/	/	/	/	/
1	0	-30	23	25.3	13.8	1	6616	1.1	0.8	1.03	0.97	31	0	0	0
1	0	/	/	/	/	/	/	/	/	/	/	/	/	/	/
360	6617	0	1	1	1	2	0	0	2	'360-6617'	1	1	1	/	/
0.04193	1.04817	100	/	/	/	/	/	/	/	/	/	/	/	/	/
1	0	-30	23	25.3	13.8	1	6617	1.1	0.8	1.03	0.97	31	0	0	0
1	0	/	/	/	/	/	/	/	/	/	/	/	/	/	/
361	6617	0	1	1	1	2	0	0	2	'361-6617'	1	1	1	/	/
0.04193	1.04817	100	/	/	/	/	/	/	/	/	/	/	/	/	/
1	0	-30	23	25.3	13.8	1	6617	1.1	0.8	1.03	0.97	31	0	0	0
1	0	/	/	/	/	/	/	/	/	/	/	/	/	/	/
362	1109	0	1	1	1	2	0	0	2	'362-1109'	1	1	1	/	/
0.0416	1.03994	100	/	/	/	/	/	/	/	/	/	/	/	/	/
1	0	-30	23	25.3	13.8	1	1109	1.1	0.8	1.03	0.97	31	0	0	0
1	0	/	/	/	/	/	/	/	/	/	/	/	/	/	/
363	1109	0	1	1	1	2	0	0	2	'363-1109'	1	1	1	/	/
0.0416	1.03994	100	/	/	/	/	/	/	/	/	/	/	/	/	/
1	0	-30	23	25.3	13.8	1	1109	1.1	0.8	1.03	0.97	31	0	0	0
1	0	/	/	/	/	/	/	/	/	/	/	/	/	/	/
Q															
